/*--------------------------------*- C++ -*----------------------------------*\
| =========                 |                                                 |
| \\      /  F ield         | OpenFOAM: The Open Source CFD Toolbox           |
|  \\    /   O peration     | Version:  2.1.1                                 |
|   \\  /    A nd           | Web:      www.OpenFOAM.org                      |
|    \\/     M anipulation  |                                                 |
\*---------------------------------------------------------------------------*/
FoamFile
{
    version     2.0;
    format      ascii;
    class       dictionary;
    location    "system";
    object      sampleDict;
}
// * * * * * * * * * * * * * * * * * * * * * * * * * * * * * * * * * * * * * //


interpolationScheme cellPoint;
  
setFormat       raw;
  
surfaces
(
	pinta
	{
		type	plane;
		surfaceFormat 	raw;
		basePoint (0 0 0);//basePoint	(0 0 0.05e-5);
		normalVector (0 0 1);//normalVector	(0 0 1);
		interpolate	true;
	}
);
surfaceFormat 	raw;
sets
(
 	axis
	{
		type 	uniform;
		axis 	x;
		start (-1.6e-2 0.01001 0);
		end (45.6e-2 0.01001 0);
		nPoints 8000;
	}
);
//#fields          (T rho p U);
fields          (T rho U C3H6 O2 CO CO2 H2O H2 N2 O H OH p);
  
  
// ************************************************************************* //
