/*--------------------------------*- C++ -*----------------------------------*\
| =========                 |                                                 |
| \\      /  F ield         | OpenFOAM: The Open Source CFD Toolbox           |
|  \\    /   O peration     | Version:  2.1.1                                 |
|   \\  /    A nd           | Web:      www.OpenFOAM.org                      |
|    \\/     M anipulation  |                                                 |
\*---------------------------------------------------------------------------*/
FoamFile
{
    version     2.0;
    format      ascii;
    class       volScalarField;
    location    "0";
    object      mut;
}
// * * * * * * * * * * * * * * * * * * * * * * * * * * * * * * * * * * * * * //

dimensions      [1 -1 -1 0 0 0 0];

internalField   uniform 0;

boundaryField
{
    cooler
    {
        type            fixedValue;
        value           uniform 0;
    }
    fuelAir
    {
        type            fixedValue;
        value           uniform 0;
    }
    carrier
    {
        type            fixedValue;
        value           uniform 0;
    }
    walls
    {
        type            mutkWallFunction;
        Cmu             0.09;
        kappa           0.41;
        E               9.8;
        value           uniform 0;
    }
    midWalls
    {
	type		slip;
    }
    symmetric
    {
        type            symmetryPlane;
    }
    front
    {
        type            empty;
    }
    back
    {
        type            empty;
    }
    outlet
    {
        type            zeroGradient;
    }
    frontAndBack_pos
    {
        type            wedge;
    }
    frontAndBack_neg
    {
        type            wedge;
    }
    divOutlet
    {
	    type slip;
    }
    outsideInlet
    {
	    type slip;
    }
}


// ************************************************************************* //
